92
Energy =
C    -0.1449563    3.2746453   -0.6314325 
C    -1.3036006    3.0577188   -1.3782403 
C    -2.4839938    2.8559959   -0.6627153 
C    -2.4971686    2.8254751    0.7428572 
C    -1.3299579    2.9932294    1.4882016 
C    -0.1576220    3.2419991    0.7732772 
C    -3.9284511    2.6176498   -1.1188814 
C    -4.2388179    1.1744175   -0.7153482 
C    -4.2531314    1.1450777    0.6917949 
C    -3.9502549    2.5696921    1.1611929 
C    -4.3460187    0.0095786   -1.4734849 
C    -4.4538272   -1.1869909   -0.7658147 
C    -4.4697307   -1.2159881    0.6400128 
C    -4.3768747   -0.0498705    1.3987751 
C    -4.6724662    3.3657253    0.0303717 
C     1.2648784    3.7006508   -1.0469688 
C     1.2448143    3.6463096    1.2332443 
C     2.2444937    2.5801637    0.7785900 
C     2.2569889    2.6139084   -0.6263927 
C     3.1289966    1.7754576    1.4976985 
C     4.0580021    1.0433452    0.7572339 
C     4.0707953    1.0775686   -0.6473571 
C     3.1546137    1.8448526   -1.3678347 
C     1.5410357    4.7103527    0.1203800 
C     5.2280350    0.1809888   -1.0986082 
C     4.8479051   -1.2463166   -0.6995193 
C     4.8342860   -1.2809638    0.7086356 
C     5.2067225    0.1246422    1.1849022 
C     4.5244844   -2.3702464   -1.4444445 
C     4.1808936   -3.5457958   -0.7556733 
C     4.1668381   -3.5800098    0.6384904 
C     4.4964294   -2.4399171    1.3908425 
C     6.2299229    0.4900005    0.0608929 
C    -4.4015125   -2.6896212    1.0482788 
C    -2.9982043   -3.1291350    0.6186896 
C    -2.9815160   -3.1000613   -0.7884219 
C    -4.3746871   -2.6426272   -1.2326134 
C    -1.8517338   -3.4288362    1.3376585 
C    -0.6746520   -3.7205934    0.6269605 
C    -0.6580354   -3.6918126   -0.7656091 
C    -1.8179437   -3.3703373   -1.4915173 
C    -5.2265196   -3.3183221   -0.1154677 
H    -1.2980360    3.0912987   -2.4650562 
H    -1.3442714    2.9779258    2.5753695 
H    -4.1594465    2.8931571   -2.1479094 
H    -4.2005723    2.8022091    2.1962931 
H    -4.2957185    0.0301384   -2.5591347 
H    -4.3492668   -0.0743018    2.4851080 
H    -4.4478439    4.4362832    0.0549276 
H    -5.7528968    3.1922569    0.0164583 
H     1.3683216    4.0675039   -2.0689193 
H     1.3304998    3.9638269    2.2731916 
H     3.1329206    1.7597405    2.5848167 
H     3.1779198    1.8821356   -2.4541574 
H     0.8350881    5.5466620    0.1341870 
H     2.5756549    5.0672074    0.1379587 
H     5.5693928    0.3185533   -2.1244944 
H     5.5290240    0.2109750    2.2224804 
H     4.5261470   -2.3456723   -2.5307188 
H     3.9276342   -4.4406201   -1.3175601 
H     3.9027453   -4.5011796    1.1505424 
H     4.4768478   -2.4688370    2.4768864 
H     6.5327091    1.5409605    0.0897446 
H     7.1029209   -0.1700039    0.0526850 
H    -4.6916364   -2.9255238    2.0722923 
H    -4.6403650   -2.8362795   -2.2720209 
H    -1.8551622   -3.4395519    2.4247729 
H     0.2354808   -3.9630368    1.1686481 
H     0.2649950   -3.9118790   -1.2948103 
H    -1.7952610   -3.3360304   -2.5779323 
H    -6.2684322   -2.9849609   -0.1209128 
H    -5.1650378   -4.4105498   -0.1371928 
C     0.2393205   -0.4475809   -1.4157546 
C     0.2088092   -0.5104356    1.3994118 
C     1.4026802   -0.8437501    0.6743045 
C     1.4173411   -0.8141014   -0.6808824 
C    -0.9859254   -0.2083275    0.6631935 
C    -0.9710531   -0.1779805   -0.6925725 
C     0.2108014   -0.4846432    2.7943114 
C     0.2708372   -0.3583670   -2.8077334 
C     1.4679501   -0.5909872   -3.5340259 
C    -0.8881284   -0.0094165   -3.5486699 
C     1.3928515   -0.7501792    3.5338099 
C    -0.9644049   -0.1722321    3.5258970 
N    -1.8514600    0.2799611   -4.1358740 
N     2.4648654   -0.7753349   -4.1074617 
N     2.3784703   -0.9613057    4.1174241 
N    -1.9408855    0.0877713    4.1050716 
H     2.3186066   -1.0767416   -1.2196952 
H     2.2922678   -1.1298887    1.2203967 
H    -1.9012708    0.0021848    1.2000537 
H    -1.8744876    0.0569473   -1.2393832 
