24
Energy =
N    -1.4888766    1.1619633    0.0000000 
H    -0.4604549    1.2132001    0.0000000 
C    -2.0557020   -0.1012312    0.0000000 
O    -1.3529764   -1.1143219    0.0000000 
C    -3.5024998   -0.1231361    0.0000000 
H    -4.0084680   -1.0726395    0.0000000 
C    -4.1808975    1.0432864    0.0000000 
H    -5.2597746    1.0899796    0.0000000 
N    -3.5337143    2.2446046    0.0000000 
H    -4.0427155    3.1130731    0.0000000 
C    -2.1503561    2.3762154    0.0000000 
O    -1.5987212    3.4562309    0.0000000 
N     3.3938504    0.0530281    0.0000000 
H     3.8410941    0.9596013    0.0000000 
C     4.2498981   -1.0615897    0.0000000 
O     5.4593502   -0.9098852    0.0000000 
C     3.5356797   -2.3237632    0.0000000 
H     4.1022643   -3.2387939    0.0000000 
C     2.1855107   -2.3275811    0.0000000 
H     1.6085475   -3.2405458    0.0000000 
N     1.4475193   -1.1767002    0.0000000 
H     0.4211830   -1.1981430    0.0000000 
C     2.0202902    0.0679648    0.0000000 
O     1.3699693    1.1091831    0.0000000 
